BEGIN OPTIONS
  MEMORY_PRINT_OPTION SUMMARY
  PRINT_INPUT
END OPTIONS

BEGIN TIMING
  TDIS6 'TS_19_chd.tdis'
END TIMING

BEGIN MODELS
  GWF6 'TS_19_chd.nam' 'MODFLOW'
END MODELS

BEGIN EXCHANGES
END EXCHANGES

BEGIN SOLUTIONGROUP     1
  MXITER     1
  IMS6 'TS_19_chd.ims' 'MODFLOW' 
END SOLUTIONGROUP

