# GNC: Ghost-Node Correction package file created on 19-03-2026 by ModelMuse version 5.4.0.0.
BEGIN OPTIONS
    PRINT_INPUT
END OPTIONS

BEGIN DIMENSIONS
  NUMGNC  9312
  NUMALPHAJ     3
END DIMENSIONS

BEGIN GNCDATA
      1  4666        1  4783        1  4665        0     0        0     0     2.507883940189E-001   0.000000000000E+000   0.000000000000E+000 
      1  4666        1  4784        1  4667        0     0        0     0     2.485204073564E-001   0.000000000000E+000   0.000000000000E+000 
      1  4667        1  4787        1  4666        0     0        0     0     2.514854536202E-001   0.000000000000E+000   0.000000000000E+000 
      1  4667        1  4788        1  4668        0     0        0     0     2.486682930607E-001   0.000000000000E+000   0.000000000000E+000 
      1  4668        1  4791        1  4667        0     0        0     0     2.513364529759E-001   0.000000000000E+000   0.000000000000E+000 
      1  4668        1  4792        1  4669        0     0        0     0     2.492286305778E-001   0.000000000000E+000   0.000000000000E+000 
      1  4669        1  4795        1  4668        0     0        0     0     2.507729593881E-001   0.000000000000E+000   0.000000000000E+000 
      1  4669        1  4796        1  4670        0     0        0     0     2.496012621908E-001   0.000000000000E+000   0.000000000000E+000 
      1  4782        1  4911        1  4781        0     0        0     0     2.499586944388E-001   0.000000000000E+000   0.000000000000E+000 
      1  4782        1  4912        1  4785        1  4783        0     0     1.665947439102E-001   1.663313724820E-001   0.000000000000E+000 
      1  4782        1  4783        1  4665        0     0        0     0     2.493168230573E-001   0.000000000000E+000   0.000000000000E+000 
      1  4782        1  4785        1  4912        1  4911        0     0     1.667477882434E-001   1.667934796884E-001   0.000000000000E+000 
      1  4785        1  4915        1  4911        1  4912        1  4782     5.565770136656E-002   5.564245448277E-002   5.559803829246E-002 
      1  4786        1  4917        1  4785        0     0        0     0     2.504969052811E-001   0.000000000000E+000   0.000000000000E+000 
      1  4785        1  4916        1  4786        0     0        0     0     2.495037522872E-001   0.000000000000E+000   0.000000000000E+000 
      1  4786        1  4918        1  4789        0     0        0     0     2.493279534652E-001   0.000000000000E+000   0.000000000000E+000 
      1  4789        1  4931        1  4784        0     0        0     0     2.503489278418E-001   0.000000000000E+000   0.000000000000E+000 
      1  4790        1  4933        1  4789        0     0        0     0     2.506191733226E-001   0.000000000000E+000   0.000000000000E+000 
      1  4789        1  4932        1  4790        0     0        0     0     2.493818473271E-001   0.000000000000E+000   0.000000000000E+000 
      1  4790        1  4934        1  4793        0     0        0     0     2.494082876928E-001   0.000000000000E+000   0.000000000000E+000 
      1  4793        1  4947        1  4788        0     0        0     0     2.501531091572E-001   0.000000000000E+000   0.000000000000E+000 
      1  4794        1  4949        1  4793        0     0        0     0     2.504784488340E-001   0.000000000000E+000   0.000000000000E+000 
      1  4793        1  4948        1  4794        0     0        0     0     2.495221608236E-001   0.000000000000E+000   0.000000000000E+000 
      1  4794        1  4950        1  4797        0     0        0     0     2.495894413014E-001   0.000000000000E+000   0.000000000000E+000 
      1  4797        1  4963        1  4792        0     0        0     0     2.497923047713E-001   0.000000000000E+000   0.000000000000E+000 
      1  4798        1  4965        1  4797        0     0        0     0     2.504674013877E-001   0.000000000000E+000   0.000000000000E+000 
      1  4797        1  4964        1  4798        0     0        0     0     2.495331804579E-001   0.000000000000E+000   0.000000000000E+000 
      1  4798        1  4966        1  4979        1  4980        1  4799     5.561005570206E-002   5.550711829467E-002   5.534508233096E-002 
      1  4799        1  4979        1  4798        1  4796        0     0     1.672061701780E-001   1.666663994811E-001   0.000000000000E+000 
      1  4799        1  4980        1  4800        0     0        0     0     2.495969535840E-001   0.000000000000E+000   0.000000000000E+000 
      1  4799        1  4796        1  4670        0     0        0     0     2.492309177034E-001   0.000000000000E+000   0.000000000000E+000 
      1  4799        1  4798        1  4980        1  4979        0     0     1.669399551586E-001   1.672495436708E-001   0.000000000000E+000 
      1  4910        1  5093        1  4909        0     0        0     0     2.496693691717E-001   0.000000000000E+000   0.000000000000E+000 
      1  4910        1  5094        1  4913        1  4911        0     0     1.667838870603E-001   1.665769452455E-001   0.000000000000E+000 
      1  4910        1  4911        1  4781        0     0        0     0     2.496645117289E-001   0.000000000000E+000   0.000000000000E+000 
      1  4910        1  4913        1  5094        1  5093        0     0     1.668994234192E-001   1.666876568480E-001   0.000000000000E+000 
      1  4913        1  5097        1  5093        1  5094        1  4910     5.554219505903E-002   5.561275805347E-002   5.551406306499E-002 
      1  4914        1  5099        1  4913        0     0        0     0     2.500602534273E-001   0.000000000000E+000   0.000000000000E+000 
      1  4913        1  5098        1  4914        0     0        0     0     2.499397562524E-001   0.000000000000E+000   0.000000000000E+000 
      1  4914        1  5100        1  4927        1  4923        0     0     1.666476435166E-001   1.665656761201E-001   0.000000000000E+000 
      1  4912        1  4915        1  4783        1  4785        1  4782     5.538434363428E-002   5.547203998082E-002   5.552988688766E-002 
      1  4914        1  4923        1  4912        0     0        0     0     2.497761542457E-001   0.000000000000E+000   0.000000000000E+000 
      1  4912        1  4919        1  4914        0     0        0     0     2.502239794526E-001   0.000000000000E+000   0.000000000000E+000 
      1  4914        1  4927        1  5100        1  5099        0     0     1.668023219867E-001   1.668748671810E-001   0.000000000000E+000 
      1  4927        1  5113        1  5099        1  5100        1  4913     5.565673422391E-002   5.563253867746E-002   5.557647866859E-002 
      1  4928        1  5115        1  4927        0     0        0     0     2.501730000026E-001   0.000000000000E+000   0.000000000000E+000 
      1  4929        1  5117        1  4928        0     0        0     0     2.501243743937E-001   0.000000000000E+000   0.000000000000E+000 
      1  4930        1  5119        1  4929        0     0        0     0     2.503675772212E-001   0.000000000000E+000   0.000000000000E+000 
      1  4927        1  5114        1  4928        0     0        0     0     2.498270797713E-001   0.000000000000E+000   0.000000000000E+000 
      1  4928        1  5116        1  4929        0     0        0     0     2.498756668432E-001   0.000000000000E+000   0.000000000000E+000 
      1  4929        1  5118        1  4930        0     0        0     0     2.496327827273E-001   0.000000000000E+000   0.000000000000E+000 
      1  4930        1  5120        1  4943        0     0        0     0     2.497859599486E-001   0.000000000000E+000   0.000000000000E+000 
      1  4943        1  5177        1  4922        0     0        0     0     2.500363653638E-001   0.000000000000E+000   0.000000000000E+000 
      1  4944        1  5179        1  4943        0     0        0     0     2.504021071817E-001   0.000000000000E+000   0.000000000000E+000 
      1  4945        1  5181        1  4944        0     0        0     0     2.501546177676E-001   0.000000000000E+000   0.000000000000E+000 
      1  4946        1  5183        1  4945        0     0        0     0     2.502395384607E-001   0.000000000000E+000   0.000000000000E+000 
      1  4943        1  5178        1  4944        0     0        0     0     2.495983235303E-001   0.000000000000E+000   0.000000000000E+000 
      1  4944        1  5180        1  4945        0     0        0     0     2.498454459572E-001   0.000000000000E+000   0.000000000000E+000 
      1  4945        1  5182        1  4946        0     0        0     0     2.497606144515E-001   0.000000000000E+000   0.000000000000E+000 
      1  4946        1  5184        1  4959        0     0        0     0     2.499011133605E-001   0.000000000000E+000   0.000000000000E+000 
      1  4959        1  5241        1  4938        0     0        0     0     2.497967976094E-001   0.000000000000E+000   0.000000000000E+000 
      1  4960        1  5243        1  4959        0     0        0     0     2.501805586284E-001   0.000000000000E+000   0.000000000000E+000 
      1  4961        1  5245        1  4960        0     0        0     0     2.500903602063E-001   0.000000000000E+000   0.000000000000E+000 
      1  4962        1  5247        1  4961        0     0        0     0     2.501462490825E-001   0.000000000000E+000   0.000000000000E+000 
      1  4959        1  5242        1  4960        0     0        0     0     2.498195282669E-001   0.000000000000E+000   0.000000000000E+000 
      1  4960        1  5244        1  4961        0     0        0     0     2.499096615617E-001   0.000000000000E+000   0.000000000000E+000 
      1  4961        1  5246        1  4962        0     0        0     0     2.498538079321E-001   0.000000000000E+000   0.000000000000E+000 
      1  4962        1  5248        1  4975        0     0        0     0     2.499338348614E-001   0.000000000000E+000   0.000000000000E+000 
      1  4975        1  5305        1  4954        0     0        0     0     2.494771299106E-001   0.000000000000E+000   0.000000000000E+000 
      1  4976        1  5307        1  4975        0     0        0     0     2.501623630540E-001   0.000000000000E+000   0.000000000000E+000 
      1  4977        1  5309        1  4976        0     0        0     0     2.501139325813E-001   0.000000000000E+000   0.000000000000E+000 
      1  4978        1  5311        1  4977        0     0        0     0     2.503210720254E-001   0.000000000000E+000   0.000000000000E+000 
      1  4975        1  5306        1  4976        0     0        0     0     2.498377072136E-001   0.000000000000E+000   0.000000000000E+000 
      1  4976        1  5308        1  4977        0     0        0     0     2.498861020232E-001   0.000000000000E+000   0.000000000000E+000 
      1  4977        1  5310        1  4978        0     0        0     0     2.496792026387E-001   0.000000000000E+000   0.000000000000E+000 
      1  4978        1  5312        1  5369        1  5370        1  4981     5.565609510685E-002   5.556096382110E-002   5.540198291005E-002 
      1  4981        1  5369        1  4978        1  4974        0     0     1.670179943610E-001   1.667948571110E-001   0.000000000000E+000 
      1  4982        1  5371        1  4981        0     0        0     0     2.503220251512E-001   0.000000000000E+000   0.000000000000E+000 
      1  4981        1  5370        1  4982        0     0        0     0     2.496782511454E-001   0.000000000000E+000   0.000000000000E+000 
      1  4982        1  5372        1  5385        1  5386        1  4983     5.582160286626E-002   5.579610555418E-002   5.542408883676E-002 
      1  4979        1  4966        1  4796        1  4798        1  4799     5.536461071478E-002   5.554391616927E-002   5.531991748500E-002 
      1  4981        1  4974        1  4979        0     0        0     0     2.492723719040E-001   0.000000000000E+000   0.000000000000E+000 
      1  4979        1  4970        1  4981        0     0        0     0     2.507290426879E-001   0.000000000000E+000   0.000000000000E+000 
      1  4981        1  4978        1  5370        1  5369        0     0     1.669374758375E-001   1.672233055933E-001   0.000000000000E+000 
      1  4983        1  5385        1  4982        1  4980        0     0     1.669917678030E-001   1.663217254854E-001   0.000000000000E+000 
      1  4983        1  5386        1  4984        0     0        0     0     2.493969188215E-001   0.000000000000E+000   0.000000000000E+000 
      1  4983        1  4980        1  4800        0     0        0     0     2.486569618597E-001   0.000000000000E+000   0.000000000000E+000 
      1  4983        1  4982        1  5386        1  5385        0     0     1.673979937225E-001   1.674744900809E-001   0.000000000000E+000 
      1  5092        1  5497        1  5091        0     0        0     0     2.498188172199E-001   0.000000000000E+000   0.000000000000E+000 
      1  5092        1  5498        1  5095        1  5093        0     0     1.667444327615E-001   1.665251414559E-001   0.000000000000E+000 
      1  5092        1  5093        1  4909        0     0        0     0     2.493975009107E-001   0.000000000000E+000   0.000000000000E+000 
      1  5092        1  5095        1  5498        1  5497        0     0     1.667910587762E-001   1.668001362269E-001   0.000000000000E+000 
      1  5095        1  5501        1  5497        1  5498        1  5092     5.559720323608E-002   5.559417757384E-002   5.553122828287E-002 
      1  5096        1  5503        1  5095        0     0        0     0     2.496804498936E-001   0.000000000000E+000   0.000000000000E+000 
      1  5095        1  5502        1  5096        0     0        0     0     2.503198226380E-001   0.000000000000E+000   0.000000000000E+000 
      1  5096        1  5504        1  5109        1  5105        0     0     1.667656499190E-001   1.666668873781E-001   0.000000000000E+000 
      1  5094        1  5097        1  4911        1  4913        1  4910     5.544503293145E-002   5.551391338618E-002   5.547260839688E-002 
      1  5096        1  5105        1  5094        0     0        0     0     2.496717636619E-001   0.000000000000E+000   0.000000000000E+000 
      1  5094        1  5101        1  5096        0     0        0     0     2.503285238941E-001   0.000000000000E+000   0.000000000000E+000 
      1  5096        1  5109        1  5504        1  5503        0     0     1.668239748718E-001   1.665633086354E-001   0.000000000000E+000 
      1  5109        1  5517        1  5503        1  5504        1  5095     5.549499916682E-002   5.558184706079E-002   5.543035287370E-002 
      1  5110        1  5519        1  5109        0     0        0     0     2.498107634743E-001   0.000000000000E+000   0.000000000000E+000 
      1  5111        1  5521        1  5110        0     0        0     0     2.499915715974E-001   0.000000000000E+000   0.000000000000E+000 
      1  5112        1  5523        1  5111        0     0        0     0     2.501137947897E-001   0.000000000000E+000   0.000000000000E+000 
      1  5109        1  5518        1  5110        0     0        0     0     2.501893320685E-001   0.000000000000E+000   0.000000000000E+000 
      1  5110        1  5520        1  5111        0     0        0     0     2.500084285921E-001   0.000000000000E+000   0.000000000000E+000 
      1  5111        1  5522        1  5112        0     0        0     0     2.498862397312E-001   0.000000000000E+000   0.000000000000E+000 
      1  5112        1  5524        1  5169        1  5161        0     0     1.667082281010E-001   1.665838223185E-001   0.000000000000E+000 
      1  5100        1  5113        1  4923        1  4927        1  4914     5.545374595718E-002   5.548103488783E-002   5.549735702127E-002 
      1  5104        1  5129        1  5100        0     0        0     0     2.498603169527E-001   0.000000000000E+000   0.000000000000E+000 
      1  5108        1  5145        1  5104        0     0        0     0     2.497184128462E-001   0.000000000000E+000   0.000000000000E+000 
      1  5112        1  5161        1  5108        0     0        0     0     2.498654327227E-001   0.000000000000E+000   0.000000000000E+000 
      1  5100        1  5121        1  5104        0     0        0     0     2.501397350970E-001   0.000000000000E+000   0.000000000000E+000 
      1  5104        1  5137        1  5108        0     0        0     0     2.502817987562E-001   0.000000000000E+000   0.000000000000E+000 
      1  5108        1  5153        1  5112        0     0        0     0     2.501346155836E-001   0.000000000000E+000   0.000000000000E+000 
      1  5112        1  5169        1  5524        1  5523        0     0     1.667389579233E-001   1.668051511157E-001   0.000000000000E+000 
      1  5169        1  5581        1  5523        1  5524        1  5109     5.560613703216E-002   5.558407088072E-002   5.551754758293E-002 
      1  5170        1  5583        1  5169        0     0        0     0     2.501290764243E-001   0.000000000000E+000   0.000000000000E+000 
      1  5171        1  5585        1  5170        0     0        0     0     2.500000000000E-001   0.000000000000E+000   0.000000000000E+000 
      1  5172        1  5587        1  5171        0     0        0     0     2.501451961684E-001   0.000000000000E+000   0.000000000000E+000 
      1  5173        1  5589        1  5172        0     0        0     0     2.501598619410E-001   0.000000000000E+000   0.000000000000E+000 
      1  5174        1  5591        1  5173        0     0        0     0     2.502092617635E-001   0.000000000000E+000   0.000000000000E+000 
      1  5175        1  5593        1  5174        0     0        0     0     2.500000000000E-001   0.000000000000E+000   0.000000000000E+000 
      1  5176        1  5595        1  5175        0     0        0     0     2.502444237714E-001   0.000000000000E+000   0.000000000000E+000 
      1  5169        1  5582        1  5170        0     0        0     0     2.498709679890E-001   0.000000000000E+000   0.000000000000E+000 
      1  5170        1  5584        1  5171        0     0        0     0     2.500000000000E-001   0.000000000000E+000   0.000000000000E+000 
      1  5171        1  5586        1  5172        0     0        0     0     2.498548600283E-001   0.000000000000E+000   0.000000000000E+000 
      1  5172        1  5588        1  5173        0     0        0     0     2.498402061789E-001   0.000000000000E+000   0.000000000000E+000 
      1  5173        1  5590        1  5174        0     0        0     0     2.497908549460E-001   0.000000000000E+000   0.000000000000E+000 
      1  5174        1  5592        1  5175        0     0        0     0     2.500000000000E-001   0.000000000000E+000   0.000000000000E+000 
      1  5175        1  5594        1  5176        0     0        0     0     2.497557354395E-001   0.000000000000E+000   0.000000000000E+000 
      1  5176        1  5596        1  5233        0     0        0     0     2.466374820582E-001   0.000000000000E+000   0.000000000000E+000 
      1  5233        1  5837        1  5144        0     0        0     0     2.514850003161E-001   0.000000000000E+000   0.000000000000E+000 
      1  5234        1  5839        1  5233        0     0        0     0     2.471238898105E-001   0.000000000000E+000   0.000000000000E+000 
      1  5235        1  5841        1  5234        0     0        0     0     2.500000000000E-001   0.000000000000E+000   0.000000000000E+000 
      1  5236        1  5843        1  5235        0     0        0     0     2.501940408791E-001   0.000000000000E+000   0.000000000000E+000 
      1  5237        1  5845        1  5236        0     0        0     0     2.501271069929E-001   0.000000000000E+000   0.000000000000E+000 
      1  5238        1  5847        1  5237        0     0        0     0     2.500700377786E-001   0.000000000000E+000   0.000000000000E+000 
      1  5239        1  5849        1  5238        0     0        0     0     2.500000000000E-001   0.000000000000E+000   0.000000000000E+000 
      1  5240        1  5851        1  5239        0     0        0     0     2.500290172110E-001   0.000000000000E+000   0.000000000000E+000 
      1  5233        1  5838        1  5234        0     0        0     0     2.528983393719E-001   0.000000000000E+000   0.000000000000E+000 
      1  5234        1  5840        1  5235        0     0        0     0     2.500000000000E-001   0.000000000000E+000   0.000000000000E+000 
      1  5235        1  5842        1  5236        0     0        0     0     2.498060594740E-001   0.000000000000E+000   0.000000000000E+000 
      1  5236        1  5844        1  5237        0     0        0     0     2.498729360757E-001   0.000000000000E+000   0.000000000000E+000 
      1  5237        1  5846        1  5238        0     0        0     0     2.499299752997E-001   0.000000000000E+000   0.000000000000E+000 
      1  5238        1  5848        1  5239        0     0        0     0     2.500000000000E-001   0.000000000000E+000   0.000000000000E+000 
      1  5239        1  5850        1  5240        0     0        0     0     2.499709850341E-001   0.000000000000E+000   0.000000000000E+000 
      1  5240        1  5852        1  5297        0     0        0     0     2.500002372070E-001   0.000000000000E+000   0.000000000000E+000 
      1  5297        1  6093        1  5208        0     0        0     0     2.496277169176E-001   0.000000000000E+000   0.000000000000E+000 
      1  5298        1  6095        1  5297        0     0        0     0     2.499823688723E-001   0.000000000000E+000   0.000000000000E+000 
      1  5299        1  6097        1  5298        0     0        0     0     2.500000000000E-001   0.000000000000E+000   0.000000000000E+000 
      1  5300        1  6099        1  5299        0     0        0     0     2.499767053837E-001   0.000000000000E+000   0.000000000000E+000 
      1  5301        1  6101        1  5300        0     0        0     0     2.499807128801E-001   0.000000000000E+000   0.000000000000E+000 
      1  5302        1  6103        1  5301        0     0        0     0     2.499603264395E-001   0.000000000000E+000   0.000000000000E+000 
      1  5303        1  6105        1  5302        0     0        0     0     2.500000000000E-001   0.000000000000E+000   0.000000000000E+000 
      1  5304        1  6107        1  5303        0     0        0     0     2.499406912764E-001   0.000000000000E+000   0.000000000000E+000 
      1  5297        1  6094        1  5298        0     0        0     0     2.500176319567E-001   0.000000000000E+000   0.000000000000E+000 
      1  5298        1  6096        1  5299        0     0        0     0     2.500000000000E-001   0.000000000000E+000   0.000000000000E+000 
      1  5299        1  6098        1  5300        0     0        0     0     2.500232960634E-001   0.000000000000E+000   0.000000000000E+000 
      1  5300        1  6100        1  5301        0     0        0     0     2.500192881120E-001   0.000000000000E+000   0.000000000000E+000 
      1  5301        1  6102        1  5302        0     0        0     0     2.500396777583E-001   0.000000000000E+000   0.000000000000E+000 
      1  5302        1  6104        1  5303        0     0        0     0     2.500000000000E-001   0.000000000000E+000   0.000000000000E+000 
      1  5303        1  6106        1  5304        0     0        0     0     2.500593181052E-001   0.000000000000E+000   0.000000000000E+000 
      1  5304        1  6108        1  5361        0     0        0     0     2.500648812161E-001   0.000000000000E+000   0.000000000000E+000 
      1  5361        1  6349        1  5272        0     0        0     0     2.492595155714E-001   0.000000000000E+000   0.000000000000E+000 
      1  5362        1  6351        1  5361        0     0        0     0     2.499436775546E-001   0.000000000000E+000   0.000000000000E+000 
      1  5363        1  6353        1  5362        0     0        0     0     2.500000000000E-001   0.000000000000E+000   0.000000000000E+000 
      1  5364        1  6355        1  5363        0     0        0     0     2.499662662567E-001   0.000000000000E+000   0.000000000000E+000 
      1  5365        1  6357        1  5364        0     0        0     0     2.500030785640E-001   0.000000000000E+000   0.000000000000E+000 
      1  5366        1  6359        1  5365        0     0        0     0     2.500495038405E-001   0.000000000000E+000   0.000000000000E+000 
      1  5367        1  6361        1  5366        0     0        0     0     2.500000000000E-001   0.000000000000E+000   0.000000000000E+000 
      1  5368        1  6363        1  5367        0     0        0     0     2.500830131548E-001   0.000000000000E+000   0.000000000000E+000 
      1  5361        1  6350        1  5362        0     0        0     0     2.500563309059E-001   0.000000000000E+000   0.000000000000E+000 
      1  5362        1  6352        1  5363        0     0        0     0     2.500000000000E-001   0.000000000000E+000   0.000000000000E+000 
      1  5363        1  6354        1  5364        0     0        0     0     2.500337367782E-001   0.000000000000E+000   0.000000000000E+000 
      1  5364        1  6356        1  5365        0     0        0     0     2.499969214613E-001   0.000000000000E+000   0.000000000000E+000 
      1  5365        1  6358        1  5366        0     0        0     0     2.499505026937E-001   0.000000000000E+000   0.000000000000E+000 
      1  5366        1  6360        1  5367        0     0        0     0     2.500000000000E-001   0.000000000000E+000   0.000000000000E+000 
      1  5367        1  6362        1  5368        0     0        0     0     2.499170052176E-001   0.000000000000E+000   0.000000000000E+000 
      1  5368        1  6364        1  6605        1  6606        1  5381     5.553977900130E-002   5.551113148407E-002   5.541356136476E-002 
      1  5381        1  6605        1  5368        1  5360        0     0     1.670376529910E-001   1.666811204762E-001   0.000000000000E+000 
      1  5382        1  6607        1  5381        0     0        0     0     2.502186668899E-001   0.000000000000E+000   0.000000000000E+000 
      1  5383        1  6609        1  5382        0     0        0     0     2.500557657561E-001   0.000000000000E+000   0.000000000000E+000 
      1  5384        1  6611        1  5383        0     0        0     0     2.499747751925E-001   0.000000000000E+000   0.000000000000E+000 
      1  5381        1  6606        1  5382        0     0        0     0     2.497814605430E-001   0.000000000000E+000   0.000000000000E+000 
      1  5382        1  6608        1  5383        0     0        0     0     2.499442425355E-001   0.000000000000E+000   0.000000000000E+000 
      1  5383        1  6610        1  5384        0     0        0     0     2.500252265044E-001   0.000000000000E+000   0.000000000000E+000 
      1  5384        1  6612        1  6669        1  6670        1  5387     5.584863847049E-002   5.587199071008E-002   5.555181530040E-002 
      1  5369        1  5312        1  4974        1  4978        1  4981     5.541320662266E-002   5.548733810820E-002   5.533079189332E-002 
      1  5373        1  5328        1  5369        0     0        0     0     2.497250365750E-001   0.000000000000E+000   0.000000000000E+000 
      1  5377        1  5344        1  5373        0     0        0     0     2.493719514214E-001   0.000000000000E+000   0.000000000000E+000 
      1  5381        1  5360        1  5377        0     0        0     0     2.496272388652E-001   0.000000000000E+000   0.000000000000E+000 
      1  5369        1  5320        1  5373        0     0        0     0     2.502751651859E-001   0.000000000000E+000   0.000000000000E+000 
      1  5373        1  5336        1  5377        0     0        0     0     2.506291021965E-001   0.000000000000E+000   0.000000000000E+000 
      1  5377        1  5352        1  5381        0     0        0     0     2.503731320391E-001   0.000000000000E+000   0.000000000000E+000 
      1  5381        1  5368        1  6606        1  6605        0     0     1.668478245445E-001   1.669339293635E-001   0.000000000000E+000 
      1  5387        1  6669        1  5384        1  5380        0     0     1.666587584817E-001   1.662661693887E-001   0.000000000000E+000 
      1  5388        1  6671        1  5387        0     0        0     0     2.500641709466E-001   0.000000000000E+000   0.000000000000E+000 
      1  5387        1  6670        1  5388        0     0        0     0     2.499358400326E-001   0.000000000000E+000   0.000000000000E+000 
      1  5388        1  6672        1  6685        1  6686        1  5389     5.588533625464E-002   5.555982796873E-002   5.525773529151E-002 
      1  5385        1  5372        1  4980        1  4982        1  4983     5.511008702443E-002   5.533210306190E-002   5.522602548715E-002 
      1  5387        1  5380        1  5385        0     0        0     0     2.486515247990E-001   0.000000000000E+000   0.000000000000E+000 
      1  5385        1  5376        1  5387        0     0        0     0     2.513533417284E-001   0.000000000000E+000   0.000000000000E+000 
      1  5387        1  5384        1  6670        1  6669        0     0     1.673175326749E-001   1.672476006918E-001   0.000000000000E+000 
      1  5389        1  6685        1  5388        1  5386        0     0     1.674638742411E-001   1.662425964772E-001   0.000000000000E+000 
      1  5389        1  6686        1  5390        0     0        0     0     2.480548919618E-001   0.000000000000E+000   0.000000000000E+000 
      1  5389        1  5386        1  4984        0     0        0     0     2.477760312682E-001   0.000000000000E+000   0.000000000000E+000 
      1  5389        1  5388        1  6686        1  6685        0     0     1.671092360266E-001   1.680882786725E-001   0.000000000000E+000 