# STO: Storage package file created on 19-03-2026 by ModelMuse version 5.4.0.0.
BEGIN OPTIONS
    SAVE_FLOWS
END OPTIONS

BEGIN GRIDDATA
  ICONVERT LAYERED IPRN     5
    CONSTANT      1 # ICONVERT 1
    CONSTANT      0 # ICONVERT 2
    CONSTANT      0 # ICONVERT 3
    CONSTANT      0 # ICONVERT 4
    CONSTANT      0 # ICONVERT 5
    CONSTANT      0 # ICONVERT 6
    CONSTANT      0 # ICONVERT 7
    CONSTANT      0 # ICONVERT 8
    CONSTANT      0 # ICONVERT 9
    CONSTANT      0 # ICONVERT 10
    CONSTANT      0 # ICONVERT 11
    CONSTANT      0 # ICONVERT 12
  SS LAYERED IPRN    12
    CONSTANT   1.000000000000E-004  # SS 1

    CONSTANT   1.000000000000E-004  # SS 2

    CONSTANT   1.000000000000E-004  # SS 3

    CONSTANT   1.000000000000E-004  # SS 4

    CONSTANT   1.000000000000E-004  # SS 5

    CONSTANT   1.000000000000E-004  # SS 6

    CONSTANT   1.000000000000E-004  # SS 7

    CONSTANT   1.000000000000E-004  # SS 8

    CONSTANT   1.000000000000E-004  # SS 9

    CONSTANT   1.000000000000E-004  # SS 10

    CONSTANT   1.000000000000E-004  # SS 11

    CONSTANT   1.000000000000E-004  # SS 12

  SY LAYERED IPRN    12
    CONSTANT   2.000000000000E-002  # SY 1

    CONSTANT   2.000000000000E-002  # SY 2

    CONSTANT   2.000000000000E-002  # SY 3

    CONSTANT   2.000000000000E-002  # SY 4

    CONSTANT   2.000000000000E-002  # SY 5

    CONSTANT   2.000000000000E-002  # SY 6

    CONSTANT   2.000000000000E-002  # SY 7

    CONSTANT   2.000000000000E-002  # SY 8

    CONSTANT   2.000000000000E-002  # SY 9

    CONSTANT   2.000000000000E-002  # SY 10

    CONSTANT   2.000000000000E-002  # SY 11

    CONSTANT   2.000000000000E-002  # SY 12

END GRIDDATA

BEGIN PERIOD      1
  STEADY-STATE
END PERIOD 

BEGIN PERIOD      2
  TRANSIENT
END PERIOD 

