# CHD: Time-Variant Specified-Head package file created on 19-03-2026 by ModelMuse version 5.4.0.0.
BEGIN OPTIONS
    AUXILIARY IFACE
    BOUNDNAMES
    PRINT_INPUT
    SAVE_FLOWS
END OPTIONS

BEGIN DIMENSIONS
  MAXBOUND   340
END DIMENSIONS

BEGIN PERIOD      1
     1   108  1.324309387207E+002      2 'CHD_north'  # Data Set 6: Layer cell2d Shead IFACE boundname
     1   107  1.324531860352E+002      2 'CHD_north'  # Data Set 6: Layer cell2d Shead IFACE boundname
     1   106  1.324877166748E+002      2 'CHD_north'  # Data Set 6: Layer cell2d Shead IFACE boundname
     1   105  1.326113891602E+002      2 'CHD_north'  # Data Set 6: Layer cell2d Shead IFACE boundname
     1   104  1.329787750244E+002      2 'CHD_north'  # Data Set 6: Layer cell2d Shead IFACE boundname
     1   103  1.335410308838E+002      2 'CHD_north'  # Data Set 6: Layer cell2d Shead IFACE boundname
     1   102  1.341779479980E+002      2 'CHD_north'  # Data Set 6: Layer cell2d Shead IFACE boundname
     1   101  1.348584442139E+002      2 'CHD_north'  # Data Set 6: Layer cell2d Shead IFACE boundname
     1   100  1.355530242920E+002      2 'CHD_north'  # Data Set 6: Layer cell2d Shead IFACE boundname
     1    99  1.359836883545E+002      2 'CHD_north'  # Data Set 6: Layer cell2d Shead IFACE boundname
     1    98  1.361115875244E+002      2 'CHD_north'  # Data Set 6: Layer cell2d Shead IFACE boundname
     1    97  1.361994781494E+002      2 'CHD_north'  # Data Set 6: Layer cell2d Shead IFACE boundname
     1    96  1.363701019287E+002      2 'CHD_north'  # Data Set 6: Layer cell2d Shead IFACE boundname
     1    95  1.366554870605E+002      2 'CHD_north'  # Data Set 6: Layer cell2d Shead IFACE boundname
     1    94  1.372168884277E+002      2 'CHD_north'  # Data Set 6: Layer cell2d Shead IFACE boundname
     1    93  1.379978027344E+002      2 'CHD_north'  # Data Set 6: Layer cell2d Shead IFACE boundname
     1    92  1.384942626953E+002      2 'CHD_north'  # Data Set 6: Layer cell2d Shead IFACE boundname
     1    91  1.388447265625E+002      2 'CHD_north'  # Data Set 6: Layer cell2d Shead IFACE boundname
     1    90  1.397607727051E+002      2 'CHD_north'  # Data Set 6: Layer cell2d Shead IFACE boundname
     1    89  1.398886413574E+002      2 'CHD_north'  # Data Set 6: Layer cell2d Shead IFACE boundname
     1    88  1.389561004639E+002      2 'CHD_north'  # Data Set 6: Layer cell2d Shead IFACE boundname
     1    87  1.382372589111E+002      2 'CHD_north'  # Data Set 6: Layer cell2d Shead IFACE boundname
     1    86  1.380332031250E+002      2 'CHD_north'  # Data Set 6: Layer cell2d Shead IFACE boundname
     1    85  1.379931335449E+002      2 'CHD_north'  # Data Set 6: Layer cell2d Shead IFACE boundname
     1    84  1.379783020020E+002      2 'CHD_north'  # Data Set 6: Layer cell2d Shead IFACE boundname
     1    83  1.379905242920E+002      2 'CHD_north'  # Data Set 6: Layer cell2d Shead IFACE boundname
     1    82  1.380558166504E+002      2 'CHD_north'  # Data Set 6: Layer cell2d Shead IFACE boundname
     1    81  1.382351684570E+002      2 'CHD_north'  # Data Set 6: Layer cell2d Shead IFACE boundname
     1    80  1.383190612793E+002      2 'CHD_north'  # Data Set 6: Layer cell2d Shead IFACE boundname
     1    79  1.382144012451E+002      2 'CHD_north'  # Data Set 6: Layer cell2d Shead IFACE boundname
     1    78  1.381054840088E+002      2 'CHD_north'  # Data Set 6: Layer cell2d Shead IFACE boundname
     1    77  1.380546264648E+002      2 'CHD_north'  # Data Set 6: Layer cell2d Shead IFACE boundname
     1    76  1.379466400146E+002      2 'CHD_north'  # Data Set 6: Layer cell2d Shead IFACE boundname
     1    75  1.377106628418E+002      2 'CHD_north'  # Data Set 6: Layer cell2d Shead IFACE boundname
     1    74  1.375565948486E+002      2 'CHD_north'  # Data Set 6: Layer cell2d Shead IFACE boundname
     1    73  1.375355987549E+002      2 'CHD_north'  # Data Set 6: Layer cell2d Shead IFACE boundname
     1    72  1.376306457520E+002      2 'CHD_north'  # Data Set 6: Layer cell2d Shead IFACE boundname
     1    71  1.379154968262E+002      2 'CHD_north'  # Data Set 6: Layer cell2d Shead IFACE boundname
     1    70  1.382652740479E+002      2 'CHD_north'  # Data Set 6: Layer cell2d Shead IFACE boundname
     1    69  1.386048736572E+002      2 'CHD_north'  # Data Set 6: Layer cell2d Shead IFACE boundname
     1    68  1.389267883301E+002      2 'CHD_north'  # Data Set 6: Layer cell2d Shead IFACE boundname
     1    67  1.391824493408E+002      2 'CHD_north'  # Data Set 6: Layer cell2d Shead IFACE boundname
     1    66  1.393803405762E+002      2 'CHD_north'  # Data Set 6: Layer cell2d Shead IFACE boundname
     1    65  1.395770416260E+002      2 'CHD_north'  # Data Set 6: Layer cell2d Shead IFACE boundname
     1    64  1.398919372559E+002      2 'CHD_north'  # Data Set 6: Layer cell2d Shead IFACE boundname
     1    63  1.403224334717E+002      2 'CHD_north'  # Data Set 6: Layer cell2d Shead IFACE boundname
     1    62  1.406258239746E+002      2 'CHD_north'  # Data Set 6: Layer cell2d Shead IFACE boundname
     1    61  1.406327362061E+002      2 'CHD_north'  # Data Set 6: Layer cell2d Shead IFACE boundname
     1    60  1.405263214111E+002      2 'CHD_north'  # Data Set 6: Layer cell2d Shead IFACE boundname
     1    59  1.405985260010E+002      2 'CHD_north'  # Data Set 6: Layer cell2d Shead IFACE boundname
     1    58  1.408950195312E+002      2 'CHD_north'  # Data Set 6: Layer cell2d Shead IFACE boundname
     1    57  1.412573089600E+002      2 'CHD_north'  # Data Set 6: Layer cell2d Shead IFACE boundname
     1    56  1.414559631348E+002      2 'CHD_north'  # Data Set 6: Layer cell2d Shead IFACE boundname
     1    55  1.414727325439E+002      2 'CHD_north'  # Data Set 6: Layer cell2d Shead IFACE boundname
     1    54  1.414288940430E+002      2 'CHD_north'  # Data Set 6: Layer cell2d Shead IFACE boundname
     1    53  1.413489837646E+002      2 'CHD_north'  # Data Set 6: Layer cell2d Shead IFACE boundname
     1    52  1.412483673096E+002      2 'CHD_north'  # Data Set 6: Layer cell2d Shead IFACE boundname
     1    51  1.411355438232E+002      2 'CHD_north'  # Data Set 6: Layer cell2d Shead IFACE boundname
     1    50  1.410482940674E+002      2 'CHD_north'  # Data Set 6: Layer cell2d Shead IFACE boundname
     1    49  1.411536712646E+002      2 'CHD_north'  # Data Set 6: Layer cell2d Shead IFACE boundname
     1    48  1.417297058105E+002      2 'CHD_north'  # Data Set 6: Layer cell2d Shead IFACE boundname
     1    47  1.427466735840E+002      2 'CHD_north'  # Data Set 6: Layer cell2d Shead IFACE boundname
     1    46  1.438746490479E+002      2 'CHD_north'  # Data Set 6: Layer cell2d Shead IFACE boundname
     1    45  1.450163726807E+002      2 'CHD_north'  # Data Set 6: Layer cell2d Shead IFACE boundname
     1    44  1.460370330811E+002      2 'CHD_north'  # Data Set 6: Layer cell2d Shead IFACE boundname
     1    43  1.467259826660E+002      2 'CHD_north'  # Data Set 6: Layer cell2d Shead IFACE boundname
     1    42  1.470832061768E+002      2 'CHD_north'  # Data Set 6: Layer cell2d Shead IFACE boundname
     1    41  1.471680297852E+002      2 'CHD_north'  # Data Set 6: Layer cell2d Shead IFACE boundname
     1    40  1.470288696289E+002      2 'CHD_north'  # Data Set 6: Layer cell2d Shead IFACE boundname
     1    39  1.468379516602E+002      2 'CHD_north'  # Data Set 6: Layer cell2d Shead IFACE boundname
     1    38  1.467600097656E+002      2 'CHD_north'  # Data Set 6: Layer cell2d Shead IFACE boundname
     1    37  1.467164459229E+002      2 'CHD_north'  # Data Set 6: Layer cell2d Shead IFACE boundname
     1    36  1.466693115234E+002      2 'CHD_north'  # Data Set 6: Layer cell2d Shead IFACE boundname
     1    35  1.466704406738E+002      2 'CHD_north'  # Data Set 6: Layer cell2d Shead IFACE boundname
     1    34  1.467379455566E+002      2 'CHD_north'  # Data Set 6: Layer cell2d Shead IFACE boundname
     1    33  1.468542327881E+002      2 'CHD_north'  # Data Set 6: Layer cell2d Shead IFACE boundname
     1    32  1.469771270752E+002      2 'CHD_north'  # Data Set 6: Layer cell2d Shead IFACE boundname
     1    31  1.470577239990E+002      2 'CHD_north'  # Data Set 6: Layer cell2d Shead IFACE boundname
     1    30  1.471766662598E+002      2 'CHD_north'  # Data Set 6: Layer cell2d Shead IFACE boundname
     1    29  1.474041748047E+002      2 'CHD_north'  # Data Set 6: Layer cell2d Shead IFACE boundname
     1    28  1.476524658203E+002      2 'CHD_north'  # Data Set 6: Layer cell2d Shead IFACE boundname
     1    27  1.477847900391E+002      2 'CHD_north'  # Data Set 6: Layer cell2d Shead IFACE boundname
     1    26  1.478445587158E+002      2 'CHD_north'  # Data Set 6: Layer cell2d Shead IFACE boundname
     1    25  1.478987274170E+002      2 'CHD_north'  # Data Set 6: Layer cell2d Shead IFACE boundname
     1    24  1.480878448486E+002      2 'CHD_north'  # Data Set 6: Layer cell2d Shead IFACE boundname
     1    23  1.486699523926E+002      2 'CHD_north'  # Data Set 6: Layer cell2d Shead IFACE boundname
     1    22  1.494583892822E+002      2 'CHD_north'  # Data Set 6: Layer cell2d Shead IFACE boundname
     1    21  1.497660980225E+002      2 'CHD_north'  # Data Set 6: Layer cell2d Shead IFACE boundname
     1    20  1.496572570801E+002      2 'CHD_north'  # Data Set 6: Layer cell2d Shead IFACE boundname
     1    19  1.494094848633E+002      2 'CHD_north'  # Data Set 6: Layer cell2d Shead IFACE boundname
     1    18  1.492697296143E+002      2 'CHD_north'  # Data Set 6: Layer cell2d Shead IFACE boundname
     1    17  1.492630767822E+002      2 'CHD_north'  # Data Set 6: Layer cell2d Shead IFACE boundname
     1    16  1.492283325195E+002      2 'CHD_north'  # Data Set 6: Layer cell2d Shead IFACE boundname
     1    15  1.491116790771E+002      2 'CHD_north'  # Data Set 6: Layer cell2d Shead IFACE boundname
     1    14  1.490817260742E+002      2 'CHD_north'  # Data Set 6: Layer cell2d Shead IFACE boundname
     1    13  1.491280517578E+002      2 'CHD_north'  # Data Set 6: Layer cell2d Shead IFACE boundname
     1    12  1.492296905518E+002      2 'CHD_north'  # Data Set 6: Layer cell2d Shead IFACE boundname
     1    11  1.494207611084E+002      2 'CHD_north'  # Data Set 6: Layer cell2d Shead IFACE boundname
     1    10  1.496336822510E+002      2 'CHD_north'  # Data Set 6: Layer cell2d Shead IFACE boundname
     1     9  1.498027954102E+002      2 'CHD_north'  # Data Set 6: Layer cell2d Shead IFACE boundname
     1     8  1.498919219971E+002      2 'CHD_north'  # Data Set 6: Layer cell2d Shead IFACE boundname
     1     7  1.498910675049E+002      2 'CHD_north'  # Data Set 6: Layer cell2d Shead IFACE boundname
     1     6  1.499525451660E+002      2 'CHD_north'  # Data Set 6: Layer cell2d Shead IFACE boundname
     1     5  1.501978454590E+002      2 'CHD_north'  # Data Set 6: Layer cell2d Shead IFACE boundname
     1     4  1.507136383057E+002      2 'CHD_north'  # Data Set 6: Layer cell2d Shead IFACE boundname
     1     3  1.513404541016E+002      2 'CHD_north'  # Data Set 6: Layer cell2d Shead IFACE boundname
     1     2  1.517352447510E+002      2 'CHD_north'  # Data Set 6: Layer cell2d Shead IFACE boundname
     1     1  1.517645263672E+002      2 'CHD_north'  # Data Set 6: Layer cell2d Shead IFACE boundname
     1   118  1.517747039795E+002      0 'CHD_West'  # Data Set 6: Layer cell2d Shead IFACE boundname
     1   235  1.517892608643E+002      0 'CHD_West'  # Data Set 6: Layer cell2d Shead IFACE boundname
     1   352  1.516841735840E+002      0 'CHD_West'  # Data Set 6: Layer cell2d Shead IFACE boundname
     1   469  1.514625854492E+002      0 'CHD_West'  # Data Set 6: Layer cell2d Shead IFACE boundname
     1   586  1.512107849121E+002      0 'CHD_West'  # Data Set 6: Layer cell2d Shead IFACE boundname
     1   703  1.510117340088E+002      0 'CHD_West'  # Data Set 6: Layer cell2d Shead IFACE boundname
     1   820  1.508984985352E+002      0 'CHD_West'  # Data Set 6: Layer cell2d Shead IFACE boundname
     1   937  1.509517822266E+002      0 'CHD_West'  # Data Set 6: Layer cell2d Shead IFACE boundname
     1  1054  1.511177520752E+002      0 'CHD_West'  # Data Set 6: Layer cell2d Shead IFACE boundname
     1  1171  1.513125762939E+002      0 'CHD_West'  # Data Set 6: Layer cell2d Shead IFACE boundname
     1  1288  1.514864654541E+002      0 'CHD_West'  # Data Set 6: Layer cell2d Shead IFACE boundname
     1  1405  1.515166473389E+002      0 'CHD_West'  # Data Set 6: Layer cell2d Shead IFACE boundname
     1  1522  1.513503417969E+002      0 'CHD_West'  # Data Set 6: Layer cell2d Shead IFACE boundname
     1  1639  1.510554504395E+002      0 'CHD_West'  # Data Set 6: Layer cell2d Shead IFACE boundname
     1  1756  1.507902069092E+002      0 'CHD_West'  # Data Set 6: Layer cell2d Shead IFACE boundname
     1  1873  1.507165527344E+002      0 'CHD_West'  # Data Set 6: Layer cell2d Shead IFACE boundname
     1  1990  1.507449645996E+002      0 'CHD_West'  # Data Set 6: Layer cell2d Shead IFACE boundname
     1  2107  1.507921447754E+002      0 'CHD_West'  # Data Set 6: Layer cell2d Shead IFACE boundname
     1  2224  1.507299499512E+002      0 'CHD_West'  # Data Set 6: Layer cell2d Shead IFACE boundname
     1  2341  1.505638885498E+002      0 'CHD_West'  # Data Set 6: Layer cell2d Shead IFACE boundname
     1  2458  1.504366149902E+002      0 'CHD_West'  # Data Set 6: Layer cell2d Shead IFACE boundname
     1  2575  1.503635711670E+002      0 'CHD_West'  # Data Set 6: Layer cell2d Shead IFACE boundname
     1  2692  1.502983856201E+002      0 'CHD_West'  # Data Set 6: Layer cell2d Shead IFACE boundname
     1  2809  1.502672882080E+002      0 'CHD_West'  # Data Set 6: Layer cell2d Shead IFACE boundname
     1  2926  1.502535858154E+002      0 'CHD_West'  # Data Set 6: Layer cell2d Shead IFACE boundname
     1  3043  1.502684478760E+002      0 'CHD_West'  # Data Set 6: Layer cell2d Shead IFACE boundname
     1  3160  1.503386840820E+002      0 'CHD_West'  # Data Set 6: Layer cell2d Shead IFACE boundname
     1  3277  1.505339355469E+002      0 'CHD_West'  # Data Set 6: Layer cell2d Shead IFACE boundname
     1  3394  1.506424255371E+002      0 'CHD_West'  # Data Set 6: Layer cell2d Shead IFACE boundname
     1  3511  1.506137695312E+002      0 'CHD_West'  # Data Set 6: Layer cell2d Shead IFACE boundname
     1  3628  1.506175842285E+002      0 'CHD_West'  # Data Set 6: Layer cell2d Shead IFACE boundname
     1  3745  1.505645904541E+002      0 'CHD_West'  # Data Set 6: Layer cell2d Shead IFACE boundname
     1  3862  1.503522033691E+002      0 'CHD_West'  # Data Set 6: Layer cell2d Shead IFACE boundname
     1  3979  1.501170654297E+002      0 'CHD_West'  # Data Set 6: Layer cell2d Shead IFACE boundname
     1  4096  1.498644104004E+002      0 'CHD_West'  # Data Set 6: Layer cell2d Shead IFACE boundname
     1  4213  1.496940917969E+002      0 'CHD_West'  # Data Set 6: Layer cell2d Shead IFACE boundname
     1  4330  1.496170959473E+002      0 'CHD_West'  # Data Set 6: Layer cell2d Shead IFACE boundname
     1  4447  1.496073760986E+002      0 'CHD_West'  # Data Set 6: Layer cell2d Shead IFACE boundname
     1  4564  1.496274871826E+002      0 'CHD_West'  # Data Set 6: Layer cell2d Shead IFACE boundname
     1  4681  1.496720581055E+002      0 'CHD_West'  # Data Set 6: Layer cell2d Shead IFACE boundname
     1  4810  1.497276763916E+002      0 'CHD_West'  # Data Set 6: Layer cell2d Shead IFACE boundname
     1  4993  1.497749633789E+002      0 'CHD_West'  # Data Set 6: Layer cell2d Shead IFACE boundname
     1  5398  1.497724761963E+002      0 'CHD_West'  # Data Set 6: Layer cell2d Shead IFACE boundname
     1  6697  1.497001342773E+002      0 'CHD_West'  # Data Set 6: Layer cell2d Shead IFACE boundname
     1  7996  1.495639495850E+002      0 'CHD_West'  # Data Set 6: Layer cell2d Shead IFACE boundname
     1  9295  1.493217315674E+002      0 'CHD_West'  # Data Set 6: Layer cell2d Shead IFACE boundname
     1 10594  1.490113067627E+002      0 'CHD_West'  # Data Set 6: Layer cell2d Shead IFACE boundname
     1 11893  1.487790374756E+002      0 'CHD_West'  # Data Set 6: Layer cell2d Shead IFACE boundname
     1 13192  1.485988159180E+002      0 'CHD_West'  # Data Set 6: Layer cell2d Shead IFACE boundname
     1 13597  1.484548034668E+002      0 'CHD_West'  # Data Set 6: Layer cell2d Shead IFACE boundname
     1 13780  1.484266357422E+002      0 'CHD_West'  # Data Set 6: Layer cell2d Shead IFACE boundname
     1 13909  1.485583190918E+002      0 'CHD_West'  # Data Set 6: Layer cell2d Shead IFACE boundname
     1 14026  1.487784881592E+002      0 'CHD_West'  # Data Set 6: Layer cell2d Shead IFACE boundname
     1 14143  1.489560852051E+002      0 'CHD_West'  # Data Set 6: Layer cell2d Shead IFACE boundname
     1 14260  1.490211486816E+002      0 'CHD_West'  # Data Set 6: Layer cell2d Shead IFACE boundname
     1 14377  1.490249633789E+002      0 'CHD_West'  # Data Set 6: Layer cell2d Shead IFACE boundname
     1 14494  1.490575561523E+002      0 'CHD_West'  # Data Set 6: Layer cell2d Shead IFACE boundname
     1 14611  1.490629272461E+002      0 'CHD_West'  # Data Set 6: Layer cell2d Shead IFACE boundname
     1 14728  1.488658142090E+002      0 'CHD_West'  # Data Set 6: Layer cell2d Shead IFACE boundname
     1 14845  1.485720062256E+002      0 'CHD_West'  # Data Set 6: Layer cell2d Shead IFACE boundname
     1 14962  1.484741821289E+002      0 'CHD_West'  # Data Set 6: Layer cell2d Shead IFACE boundname
     1 15079  1.484267883301E+002      0 'CHD_West'  # Data Set 6: Layer cell2d Shead IFACE boundname
     1 15196  1.481823730469E+002      0 'CHD_West'  # Data Set 6: Layer cell2d Shead IFACE boundname
     1 15313  1.478877258301E+002      0 'CHD_West'  # Data Set 6: Layer cell2d Shead IFACE boundname
     1 15430  1.476831359863E+002      0 'CHD_West'  # Data Set 6: Layer cell2d Shead IFACE boundname
     1 15547  1.474647827148E+002      0 'CHD_West'  # Data Set 6: Layer cell2d Shead IFACE boundname
     1 15664  1.471535491943E+002      0 'CHD_West'  # Data Set 6: Layer cell2d Shead IFACE boundname
     1 15781  1.469177398682E+002      0 'CHD_West'  # Data Set 6: Layer cell2d Shead IFACE boundname
     1 15898  1.470113525391E+002      0 'CHD_West'  # Data Set 6: Layer cell2d Shead IFACE boundname
     1 16015  1.474365234375E+002      0 'CHD_West'  # Data Set 6: Layer cell2d Shead IFACE boundname
     1 16132  1.478362274170E+002      0 'CHD_West'  # Data Set 6: Layer cell2d Shead IFACE boundname
     1 16249  1.478857879639E+002      0 'CHD_West'  # Data Set 6: Layer cell2d Shead IFACE boundname
     1 16366  1.476978302002E+002      0 'CHD_West'  # Data Set 6: Layer cell2d Shead IFACE boundname
     1 16483  1.475110931396E+002      0 'CHD_West'  # Data Set 6: Layer cell2d Shead IFACE boundname
     1 16600  1.473625488281E+002      0 'CHD_West'  # Data Set 6: Layer cell2d Shead IFACE boundname
     1 16717  1.471553649902E+002      0 'CHD_West'  # Data Set 6: Layer cell2d Shead IFACE boundname
     1 16834  1.469382019043E+002      0 'CHD_West'  # Data Set 6: Layer cell2d Shead IFACE boundname
     1 16951  1.468087768555E+002      0 'CHD_West'  # Data Set 6: Layer cell2d Shead IFACE boundname
     1 17068  1.466707153320E+002      0 'CHD_West'  # Data Set 6: Layer cell2d Shead IFACE boundname
     1 17185  1.464622039795E+002      0 'CHD_West'  # Data Set 6: Layer cell2d Shead IFACE boundname
     1 17302  1.462758941650E+002      0 'CHD_West'  # Data Set 6: Layer cell2d Shead IFACE boundname
     1 17419  1.461117553711E+002      0 'CHD_West'  # Data Set 6: Layer cell2d Shead IFACE boundname
     1 17536  1.459559783936E+002      0 'CHD_West'  # Data Set 6: Layer cell2d Shead IFACE boundname
     1 17653  1.458377685547E+002      0 'CHD_West'  # Data Set 6: Layer cell2d Shead IFACE boundname
     1 17770  1.457774810791E+002      0 'CHD_West'  # Data Set 6: Layer cell2d Shead IFACE boundname
     1 17887  1.457432556152E+002      0 'CHD_West'  # Data Set 6: Layer cell2d Shead IFACE boundname
     1 18004  1.457236633301E+002      0 'CHD_West'  # Data Set 6: Layer cell2d Shead IFACE boundname
     1 18121  1.457113189697E+002      0 'CHD_West'  # Data Set 6: Layer cell2d Shead IFACE boundname
     1 18238  1.457185668945E+002      0 'CHD_West'  # Data Set 6: Layer cell2d Shead IFACE boundname
     1 18355  1.457398986816E+002      0 'CHD_West'  # Data Set 6: Layer cell2d Shead IFACE boundname
     1 18472  1.456642608643E+002      0 'CHD_West'  # Data Set 6: Layer cell2d Shead IFACE boundname
     1 18589  1.453660278320E+002      0 'CHD_West'  # Data Set 6: Layer cell2d Shead IFACE boundname
     1 18706  1.450137939453E+002      0 'CHD_West'  # Data Set 6: Layer cell2d Shead IFACE boundname
     1 18823  1.446552581787E+002      0 'CHD_West'  # Data Set 6: Layer cell2d Shead IFACE boundname
     1 18940  1.444119262695E+002      0 'CHD_West'  # Data Set 6: Layer cell2d Shead IFACE boundname
     1 19057  1.442966461182E+002      0 'CHD_West'  # Data Set 6: Layer cell2d Shead IFACE boundname
     1 19174  1.441310272217E+002      0 'CHD_West'  # Data Set 6: Layer cell2d Shead IFACE boundname
     1 19291  1.439535064697E+002      0 'CHD_West'  # Data Set 6: Layer cell2d Shead IFACE boundname
     1 19408  1.438267059326E+002      0 'CHD_West'  # Data Set 6: Layer cell2d Shead IFACE boundname
     1 19525  1.437431335449E+002      0 'CHD_West'  # Data Set 6: Layer cell2d Shead IFACE boundname
     1 19642  1.437078704834E+002      0 'CHD_West'  # Data Set 6: Layer cell2d Shead IFACE boundname
     1 19759  1.436856536865E+002      0 'CHD_West'  # Data Set 6: Layer cell2d Shead IFACE boundname
     1 19876  1.436648559570E+002      0 'CHD_West'  # Data Set 6: Layer cell2d Shead IFACE boundname
     1 19993  1.436528778076E+002      0 'CHD_West'  # Data Set 6: Layer cell2d Shead IFACE boundname
     1 20110  1.436663513184E+002      0 'CHD_West'  # Data Set 6: Layer cell2d Shead IFACE boundname
     1 20227  1.436863403320E+002      0 'CHD_West'  # Data Set 6: Layer cell2d Shead IFACE boundname
     1 20344  1.437091064453E+002      0 'CHD_West'  # Data Set 6: Layer cell2d Shead IFACE boundname
     1 20461  1.437662048340E+002      0 'CHD_West'  # Data Set 6: Layer cell2d Shead IFACE boundname
     1 20578  1.438681945801E+002      0 'CHD_West'  # Data Set 6: Layer cell2d Shead IFACE boundname
     1 20695  1.439904174805E+002      0 'CHD_West'  # Data Set 6: Layer cell2d Shead IFACE boundname
     1 20812  1.441357116699E+002      0 'CHD_West'  # Data Set 6: Layer cell2d Shead IFACE boundname
     1 20929  1.442845153809E+002      0 'CHD_West'  # Data Set 6: Layer cell2d Shead IFACE boundname
     1 21046  1.444362030029E+002      0 'CHD_West'  # Data Set 6: Layer cell2d Shead IFACE boundname
     1 21163  1.445438690186E+002      0 'CHD_West'  # Data Set 6: Layer cell2d Shead IFACE boundname
     1 21280  1.445426177979E+002      0 'CHD_West'  # Data Set 6: Layer cell2d Shead IFACE boundname
     1 21397  1.445418853760E+002      0 'CHD_West'  # Data Set 6: Layer cell2d Shead IFACE boundname
     1 21398  1.445258483887E+002      0 'GHB_south'  # Data Set 6: Layer cell2d Shead IFACE boundname
     1 21399  1.443200225830E+002      0 'GHB_south'  # Data Set 6: Layer cell2d Shead IFACE boundname
     1 21400  1.441344604492E+002      0 'GHB_south'  # Data Set 6: Layer cell2d Shead IFACE boundname
     1 21401  1.440063323975E+002      0 'GHB_south'  # Data Set 6: Layer cell2d Shead IFACE boundname
     1 21402  1.438423156738E+002      0 'GHB_south'  # Data Set 6: Layer cell2d Shead IFACE boundname
     1 21403  1.435498962402E+002      0 'GHB_south'  # Data Set 6: Layer cell2d Shead IFACE boundname
     1 21404  1.431553344727E+002      0 'GHB_south'  # Data Set 6: Layer cell2d Shead IFACE boundname
     1 21405  1.428217163086E+002      0 'GHB_south'  # Data Set 6: Layer cell2d Shead IFACE boundname
     1 21406  1.426516418457E+002      0 'GHB_south'  # Data Set 6: Layer cell2d Shead IFACE boundname
     1 21407  1.425037536621E+002      0 'GHB_south'  # Data Set 6: Layer cell2d Shead IFACE boundname
     1 21408  1.421876678467E+002      0 'GHB_south'  # Data Set 6: Layer cell2d Shead IFACE boundname
     1 21409  1.417583923340E+002      0 'GHB_south'  # Data Set 6: Layer cell2d Shead IFACE boundname
     1 21410  1.414276733398E+002      0 'GHB_south'  # Data Set 6: Layer cell2d Shead IFACE boundname
     1 21411  1.412384033203E+002      0 'GHB_south'  # Data Set 6: Layer cell2d Shead IFACE boundname
     1 21412  1.411040039062E+002      0 'GHB_south'  # Data Set 6: Layer cell2d Shead IFACE boundname
     1 21413  1.410299835205E+002      0 'GHB_south'  # Data Set 6: Layer cell2d Shead IFACE boundname
     1 21414  1.410152587891E+002      0 'GHB_south'  # Data Set 6: Layer cell2d Shead IFACE boundname
     1 21415  1.410737915039E+002      0 'GHB_south'  # Data Set 6: Layer cell2d Shead IFACE boundname
     1 21416  1.411687927246E+002      0 'GHB_south'  # Data Set 6: Layer cell2d Shead IFACE boundname
     1 21417  1.410551757813E+002      0 'GHB_south'  # Data Set 6: Layer cell2d Shead IFACE boundname
     1 21418  1.408608398438E+002      0 'GHB_south'  # Data Set 6: Layer cell2d Shead IFACE boundname
     1 21419  1.407146301270E+002      0 'GHB_south'  # Data Set 6: Layer cell2d Shead IFACE boundname
     1 21420  1.406346893311E+002      0 'GHB_south'  # Data Set 6: Layer cell2d Shead IFACE boundname
     1 21421  1.406001281738E+002      0 'GHB_south'  # Data Set 6: Layer cell2d Shead IFACE boundname
     1 21422  1.405955200195E+002      0 'GHB_south'  # Data Set 6: Layer cell2d Shead IFACE boundname
     1 21423  1.404415588379E+002      0 'GHB_south'  # Data Set 6: Layer cell2d Shead IFACE boundname
     1 21424  1.402442016602E+002      0 'GHB_south'  # Data Set 6: Layer cell2d Shead IFACE boundname
     1 21425  1.401320037842E+002      0 'GHB_south'  # Data Set 6: Layer cell2d Shead IFACE boundname
     1 21426  1.400940551758E+002      0 'GHB_south'  # Data Set 6: Layer cell2d Shead IFACE boundname
     1 21427  1.401148986816E+002      0 'GHB_south'  # Data Set 6: Layer cell2d Shead IFACE boundname
     1 21428  1.402441101074E+002      0 'GHB_south'  # Data Set 6: Layer cell2d Shead IFACE boundname
     1 21429  1.405248870850E+002      0 'GHB_south'  # Data Set 6: Layer cell2d Shead IFACE boundname
     1 21430  1.407852478027E+002      0 'GHB_south'  # Data Set 6: Layer cell2d Shead IFACE boundname
     1 21431  1.409044342041E+002      0 'GHB_south'  # Data Set 6: Layer cell2d Shead IFACE boundname
     1 21432  1.408806915283E+002      0 'GHB_south'  # Data Set 6: Layer cell2d Shead IFACE boundname
     1 21433  1.405626373291E+002      0 'GHB_south'  # Data Set 6: Layer cell2d Shead IFACE boundname
     1 21434  1.399255065918E+002      0 'GHB_south'  # Data Set 6: Layer cell2d Shead IFACE boundname
     1 21435  1.393562011719E+002      0 'GHB_south'  # Data Set 6: Layer cell2d Shead IFACE boundname
     1 21436  1.391150207520E+002      0 'GHB_south'  # Data Set 6: Layer cell2d Shead IFACE boundname
     1 21437  1.391391601563E+002      0 'GHB_south'  # Data Set 6: Layer cell2d Shead IFACE boundname
     1 21438  1.393086395264E+002      0 'GHB_south'  # Data Set 6: Layer cell2d Shead IFACE boundname
     1 21439  1.391159362793E+002      0 'GHB_south'  # Data Set 6: Layer cell2d Shead IFACE boundname
     1 21440  1.386424407959E+002      0 'GHB_south'  # Data Set 6: Layer cell2d Shead IFACE boundname
     1 21441  1.382993011475E+002      0 'GHB_south'  # Data Set 6: Layer cell2d Shead IFACE boundname
     1 21442  1.381007080078E+002      0 'GHB_south'  # Data Set 6: Layer cell2d Shead IFACE boundname
     1 21443  1.379808502197E+002      0 'GHB_south'  # Data Set 6: Layer cell2d Shead IFACE boundname
     1 21444  1.379136657715E+002      0 'GHB_south'  # Data Set 6: Layer cell2d Shead IFACE boundname
     1 21445  1.378603363037E+002      0 'GHB_south'  # Data Set 6: Layer cell2d Shead IFACE boundname
     1 21446  1.378079528809E+002      0 'GHB_south'  # Data Set 6: Layer cell2d Shead IFACE boundname
     1 21447  1.377555999756E+002      0 'GHB_south'  # Data Set 6: Layer cell2d Shead IFACE boundname
     1 21448  1.377032318115E+002      0 'GHB_south'  # Data Set 6: Layer cell2d Shead IFACE boundname
     1 21449  1.376513671875E+002      0 'GHB_south'  # Data Set 6: Layer cell2d Shead IFACE boundname
     1 21450  1.376076049805E+002      0 'GHB_south'  # Data Set 6: Layer cell2d Shead IFACE boundname
     1 21451  1.375874328613E+002      0 'GHB_south'  # Data Set 6: Layer cell2d Shead IFACE boundname
     1 21452  1.375557098389E+002      0 'GHB_south'  # Data Set 6: Layer cell2d Shead IFACE boundname
     1 21453  1.374654998779E+002      0 'GHB_south'  # Data Set 6: Layer cell2d Shead IFACE boundname
     1 21454  1.373657379150E+002      0 'GHB_south'  # Data Set 6: Layer cell2d Shead IFACE boundname
     1 21455  1.373008270264E+002      0 'GHB_south'  # Data Set 6: Layer cell2d Shead IFACE boundname
     1 21456  1.372477569580E+002      0 'GHB_south'  # Data Set 6: Layer cell2d Shead IFACE boundname
     1 21457  1.371953887939E+002      0 'GHB_south'  # Data Set 6: Layer cell2d Shead IFACE boundname
     1 21458  1.371473083496E+002      0 'GHB_south'  # Data Set 6: Layer cell2d Shead IFACE boundname
     1 21459  1.371244812012E+002      0 'GHB_south'  # Data Set 6: Layer cell2d Shead IFACE boundname
     1 21460  1.371310272217E+002      0 'GHB_south'  # Data Set 6: Layer cell2d Shead IFACE boundname
     1 21461  1.370637512207E+002      0 'GHB_south'  # Data Set 6: Layer cell2d Shead IFACE boundname
     1 21462  1.367452239990E+002      0 'GHB_south'  # Data Set 6: Layer cell2d Shead IFACE boundname